/*--------------------------------*- C++ -*----------------------------------*\
| =========                 |                                                 |
| \\      /  F ield         | OpenFOAM: The Open Source CFD Toolbox           |
|  \\    /   O peration     | Version:  1.5                                   |
|   \\  /    A nd           | Web:      http://www.OpenFOAM.org               |
|    \\/     M anipulation  |                                                 |
\*---------------------------------------------------------------------------*/
FoamFile
{
    version     2.0;
    format      ascii;
    class       dictionary;
    object      controlDict;
}
// * * * * * * * * * * * * * * * * * * * * * * * * * * * * * * * * * * * * * //

application interFoam;

startFrom       latestTime;

startTime       0;

stopAt          endTime;

endTime         75;

deltaT          0.001;

writeControl    adjustableRunTime;

writeInterval   0.5;

purgeWrite      0;

writeFormat     ascii;

writePrecision  6;

writeCompression uncompressed;

timeFormat      general;

timePrecision   6;

runTimeModifiable yes;

adjustTimeStep  yes;

maxCo           0.3; //target courant

maxAlphaCo      0.5; //courant Max

maxDeltaT       0.5;

 
// * * * * * * * * * * * * * * * * * * * * * * * * * * * * * * * * * * * * * //

functions
{
    #include "forces"


    surfaces
    {
        type            surfaces;
        libs            ("libsampling.so");

        writeControl    adjustableRunTime;
        writeInterval   0.01;

        surfaceFormat   raw;
        writeFormat     raw;
        fields          (alpha.water);

        interpolationScheme cellPoint;

        surfaces
        (
            alpha0.5
            {
                type            isoSurface;
                isoField        alpha.water;
                isoValue        0.5;
                interpolate     true;
            }
        );
    }
}

}

// ************************************************************************* //
