/*--------------------------------*- C++ -*----------------------------------*\
  =========                 |
  \\      /  F ield         | OpenFOAM: The Open Source CFD Toolbox
   \\    /   O peration     | Website:  https://openfoam.org
    \\  /    A nd           | Version:  10
     \\/     M anipulation  |
\*---------------------------------------------------------------------------*/
FoamFile
{
    format      ascii;
    class       pointVectorField;
    location    "0";
    object      pointDisplacement;
}
// * * * * * * * * * * * * * * * * * * * * * * * * * * * * * * * * * * * * * //

dimensions      [0 1 0 0 0 0 0];

internalField   uniform (0 0 0);

boundaryField
{


    floatingObj
    {
        type            oscillatingDisplacementMod1;
	wprime		w_value; //slurm script will change w value to float
        amplitude       (0 0.5 0);
	//omega		0.990454;
        rampTime        12.5;
        draft           5;
	value		$internalField;
    }
    ".*"
    {
        type            fixedValue;
        value           $internalField;
    }
}


// ************************************************************************* //
