/*--------------------------------*- C++ -*----------------------------------*\
  =========                 |
  \\      /  F ield         | OpenFOAM: The Open Source CFD Toolbox
   \\    /   O peration     | Website:  https://openfoam.org
    \\  /    A nd           | Version:  10
     \\/     M anipulation  |
\*---------------------------------------------------------------------------*/
FoamFile
{
    format      ascii;
    class       volVectorField;
    location    "0";
    object      U;
}
// * * * * * * * * * * * * * * * * * * * * * * * * * * * * * * * * * * * * * //

dimensions      [0 1 -1 0 0 0 0];

internalField   uniform (0 0 0);

boundaryField
{
    inlet
    {
        type            fixedValue;
        value           uniform (0 0 0);
    }
    outlet
    {
        type            fixedValue;
        value           uniform (0 0 0);
    }
    bottom
    {
        type            fixedValue;
        value           uniform (0 0 0);
    }
    atmosphere
    {
        type            pressureInletOutletVelocity;
        value           uniform (0 0 0);
    }
    back
    {
        type            empty;
    }
    front
    {
        type            empty;
    }
    floatingObject
    {
        type            oscillatingLinearMotion;
        solidBodyMotionFunctionLibs  ("libsolidBodyMotionFunction.so");
    }
}
/*
    floatingObject
    {
        type            uniformFixedValue;
        uniformValue    
        {
            type            table;
            values          
7501
(
(0 (0 0 0))
(0.01 (0 -0.000396 0))
(0.02 (0 -0.000792 0))
(0.03 (0 -0.001188 0))
(0.04 (0 -0.001583 0))
(0.05 (0 -0.001978 0))
(0.06 (0 -0.002373 0))
(0.07 (0 -0.002767 0))
(0.08 (0 -0.00316 0))
(0.09 (0 -0.003551 0))
(0.1 (0 -0.003942 0))
(0.11 (0 -0.004332 0))
(0.12 (0 -0.004721 0))
(0.13 (0 -0.005108 0))
(0.14 (0 -0.005493 0))
(0.15 (0 -0.005877 0))
(0.16 (0 -0.006259 0))
(0.17 (0 -0.00664 0))
(0.18 (0 -0.007018 0))
(0.19 (0 -0.007395 0))
(0.2 (0 -0.007769 0))
(0.21 (0 -0.00814 0))
(0.22 (0 -0.00851 0))
(0.23 (0 -0.008877 0))
(0.24 (0 -0.009241 0))
(0.25 (0 -0.009602 0))
(0.26 (0 -0.009961 0))
(0.27 (0 -0.010317 0))
(0.28 (0 -0.010669 0))
(0.29 (0 -0.011019 0))
(0.3 (0 -0.011365 0))
(0.31 (0 -0.011707 0))
(0.32 (0 -0.012046 0))
(0.33 (0 -0.012382 0))
(0.34 (0 -0.012714 0))
(0.35 (0 -0.013041 0))
(0.36 (0 -0.013365 0))
(0.37 (0 -0.013685 0))
(0.38 (0 -0.014001 0))
(0.39 (0 -0.014313 0))
(0.4 (0 -0.01462 0))
(0.41 (0 -0.014922 0))
(0.42 (0 -0.015221 0))
(0.43 (0 -0.015514 0))
(0.44 (0 -0.015803 0))
(0.45 (0 -0.016086 0))
(0.46 (0 -0.016365 0))
(0.47 (0 -0.016639 0))
(0.48 (0 -0.016908 0))
(0.49 (0 -0.017171 0))
(0.5 (0 -0.017429 0))
(0.51 (0 -0.017682 0))
(0.52 (0 -0.017929 0))
(0.53 (0 -0.01817 0))
(0.54 (0 -0.018406 0))
(0.55 (0 -0.018636 0))
(0.56 (0 -0.01886 0))
(0.57 (0 -0.019078 0))
(0.58 (0 -0.01929 0))
(0.59 (0 -0.019496 0))
(0.6 (0 -0.019696 0))
(0.61 (0 -0.019889 0))
(0.62 (0 -0.020076 0))
(0.63 (0 -0.020256 0))
(0.64 (0 -0.02043 0))
(0.65 (0 -0.020597 0))
(0.66 (0 -0.020757 0))
(0.67 (0 -0.020911 0))
(0.68 (0 -0.021058 0))
(0.69 (0 -0.021197 0))
(0.7 (0 -0.02133 0))
(0.71 (0 -0.021456 0))
(0.72 (0 -0.021574 0))
(0.73 (0 -0.021685 0))
(0.74 (0 -0.021789 0))
(0.75 (0 -0.021886 0))
(0.76 (0 -0.021975 0))
(0.77 (0 -0.022056 0))
(0.78 (0 -0.02213 0))
(0.79 (0 -0.022196 0))
(0.8 (0 -0.022255 0))
(0.81 (0 -0.022306 0))
(0.82 (0 -0.022348 0))
(0.83 (0 -0.022384 0))
(0.84 (0 -0.022411 0))
(0.85 (0 -0.02243 0))
(0.86 (0 -0.022441 0))
(0.87 (0 -0.022444 0))
(0.88 (0 -0.022439 0))
(0.89 (0 -0.022425 0))
(0.9 (0 -0.022403 0))
(0.91 (0 -0.022374 0))
(0.92 (0 -0.022335 0))
(0.93 (0 -0.022288 0))
(0.94 (0 -0.022233 0))
(0.95 (0 -0.02217 0))
(0.96 (0 -0.022098 0))
(0.97 (0 -0.022017 0))
(0.98 (0 -0.021928 0))
(0.99 (0 -0.02183 0))
(1 (0 -0.021723 0))
(1.01 (0 -0.021608 0))
(1.02 (0 -0.021484 0))
(1.03 (0 -0.021351 0))
(1.04 (0 -0.021209 0))
(1.05 (0 -0.021059 0))
(1.06 (0 -0.0209 0))
(1.07 (0 -0.020732 0))
(1.08 (0 -0.020555 0))
(1.09 (0 -0.020369 0))
(1.1 (0 -0.020174 0))
(1.11 (0 -0.019971 0))
(1.12 (0 -0.019758 0))
(1.13 (0 -0.019537 0))
(1.14 (0 -0.019306 0))
(1.15 (0 -0.019066 0))
(1.16 (0 -0.018818 0))
(1.17 (0 -0.01856 0))
(1.18 (0 -0.018294 0))
(1.19 (0 -0.018018 0))
(1.2 (0 -0.017734 0))
(1.21 (0 -0.01744 0))
(1.22 (0 -0.017137 0))
(1.23 (0 -0.016826 0))
(1.24 (0 -0.016505 0))
(1.25 (0 -0.016175 0))
(1.26 (0 -0.015837 0))
(1.27 (0 -0.015489 0))
(1.28 (0 -0.015132 0))
(1.29 (0 -0.014767 0))
(1.3 (0 -0.014392 0))
(1.31 (0 -0.014008 0))
(1.32 (0 -0.013616 0))
(1.33 (0 -0.013214 0))
(1.34 (0 -0.012804 0))
(1.35 (0 -0.012385 0))
(1.36 (0 -0.011957 0))
(1.37 (0 -0.01152 0))
(1.38 (0 -0.011074 0))
(1.39 (0 -0.01062 0))
(1.4 (0 -0.010157 0))
(1.41 (0 -0.009685 0))
(1.42 (0 -0.009204 0))
(1.43 (0 -0.008715 0))
(1.44 (0 -0.008217 0))
(1.45 (0 -0.007711 0))
(1.46 (0 -0.007196 0))
(1.47 (0 -0.006673 0))
(1.48 (0 -0.006141 0))
(1.49 (0 -0.005601 0))
(1.5 (0 -0.005052 0))
(1.51 (0 -0.004495 0))
(1.52 (0 -0.00393 0))
(1.53 (0 -0.003356 0))
(1.54 (0 -0.002775 0))
(1.55 (0 -0.002185 0))
(1.56 (0 -0.001587 0))
(1.57 (0 -0.000982 0))
(1.58 (0 -0.000368 0))
(1.59 (0 0.000254 0))
(1.6 (0 0.000883 0))
(1.61 (0 0.00152 0))
(1.62 (0 0.002165 0))
(1.63 (0 0.002818 0))
(1.64 (0 0.003478 0))
(1.65 (0 0.004145 0))
(1.66 (0 0.00482 0))
(1.67 (0 0.005502 0))
(1.68 (0 0.006192 0))
(1.69 (0 0.006889 0))
(1.7 (0 0.007593 0))
(1.71 (0 0.008304 0))
(1.72 (0 0.009022 0))
(1.73 (0 0.009747 0))
(1.74 (0 0.010478 0))
(1.75 (0 0.011217 0))
(1.76 (0 0.011962 0))
(1.77 (0 0.012714 0))
(1.78 (0 0.013472 0))
(1.79 (0 0.014236 0))
(1.8 (0 0.015007 0))
(1.81 (0 0.015784 0))
(1.82 (0 0.016567 0))
(1.83 (0 0.017356 0))
(1.84 (0 0.018151 0))
(1.85 (0 0.018952 0))
(1.86 (0 0.019758 0))
(1.87 (0 0.02057 0))
(1.88 (0 0.021388 0))
(1.89 (0 0.022211 0))
(1.9 (0 0.02304 0))
(1.91 (0 0.023873 0))
(1.92 (0 0.024712 0))
(1.93 (0 0.025556 0))
(1.94 (0 0.026404 0))
(1.95 (0 0.027258 0))
(1.96 (0 0.028116 0))
(1.97 (0 0.028978 0))
(1.98 (0 0.029846 0))
(1.99 (0 0.030717 0))
(2 (0 0.031593 0))
(2.01 (0 0.032472 0))
(2.02 (0 0.033356 0))
(2.03 (0 0.034243 0))
(2.04 (0 0.035135 0))
(2.05 (0 0.03603 0))
(2.06 (0 0.036928 0))
(2.07 (0 0.03783 0))
(2.08 (0 0.038735 0))
(2.09 (0 0.039643 0))
(2.1 (0 0.040554 0))
(2.11 (0 0.041468 0))
(2.12 (0 0.042385 0))
(2.13 (0 0.043305 0))
(2.14 (0 0.044226 0))
(2.15 (0 0.045151 0))
(2.16 (0 0.046077 0))
(2.17 (0 0.047006 0))
(2.18 (0 0.047936 0))
(2.19 (0 0.048869 0))
(2.2 (0 0.049803 0))
(2.21 (0 0.050738 0))
(2.22 (0 0.051675 0))
(2.23 (0 0.052614 0))
(2.24 (0 0.053553 0))
(2.25 (0 0.054494 0))
(2.26 (0 0.055435 0))
(2.27 (0 0.056377 0))
(2.28 (0 0.05732 0))
(2.29 (0 0.058263 0))
(2.3 (0 0.059206 0))
(2.31 (0 0.060149 0))
(2.32 (0 0.061093 0))
(2.33 (0 0.062036 0))
(2.34 (0 0.06298 0))
(2.35 (0 0.063922 0))
(2.36 (0 0.064864 0))
(2.37 (0 0.065806 0))
(2.38 (0 0.066746 0))
(2.39 (0 0.067686 0))
(2.4 (0 0.068624 0))
(2.41 (0 0.069562 0))
(2.42 (0 0.070497 0))
(2.43 (0 0.071431 0))
(2.44 (0 0.072364 0))
(2.45 (0 0.073294 0))
(2.46 (0 0.074222 0))
(2.47 (0 0.075149 0))
(2.48 (0 0.076073 0))
(2.49 (0 0.076994 0))
(2.5 (0 0.077913 0))
(2.51 (0 0.078829 0))
(2.52 (0 0.079741 0))
(2.53 (0 0.080651 0))
(2.54 (0 0.081558 0))
(2.55 (0 0.082461 0))
(2.56 (0 0.083361 0))
(2.57 (0 0.084257 0))
(2.58 (0 0.085149 0))
(2.59 (0 0.086037 0))
(2.6 (0 0.086921 0))
(2.61 (0 0.0878 0))
(2.62 (0 0.088676 0))
(2.63 (0 0.089546 0))
(2.64 (0 0.090412 0))
(2.65 (0 0.091273 0))
(2.66 (0 0.092128 0))
(2.67 (0 0.092979 0))
(2.68 (0 0.093824 0))
(2.69 (0 0.094664 0))
(2.7 (0 0.095498 0))
(2.71 (0 0.096326 0))
(2.72 (0 0.097148 0))
(2.73 (0 0.097964 0))
(2.74 (0 0.098773 0))
(2.75 (0 0.099577 0))
(2.76 (0 0.100373 0))
(2.77 (0 0.101163 0))
(2.78 (0 0.101946 0))
(2.79 (0 0.102722 0))
(2.8 (0 0.103491 0))
(2.81 (0 0.104253 0))
(2.82 (0 0.105007 0))
(2.83 (0 0.105753 0))
(2.84 (0 0.106492 0))
(2.85 (0 0.107223 0))
(2.86 (0 0.107945 0))
(2.87 (0 0.10866 0))
(2.88 (0 0.109366 0))
(2.89 (0 0.110063 0))
(2.9 (0 0.110752 0))
(2.91 (0 0.111433 0))
(2.92 (0 0.112104 0))
(2.93 (0 0.112766 0))
(2.94 (0 0.113419 0))
(2.95 (0 0.114063 0))
(2.96 (0 0.114697 0))
(2.97 (0 0.115322 0))
(2.98 (0 0.115937 0))
(2.99 (0 0.116542 0))
(3 (0 0.117137 0))
(3.01 (0 0.117721 0))
(3.02 (0 0.118296 0))
(3.03 (0 0.11886 0))
(3.04 (0 0.119413 0))
(3.05 (0 0.119956 0))
(3.06 (0 0.120488 0))
(3.07 (0 0.121009 0))
(3.08 (0 0.121519 0))
(3.09 (0 0.122018 0))
(3.1 (0 0.122505 0))
(3.11 (0 0.122981 0))
(3.12 (0 0.123446 0))
(3.13 (0 0.123898 0))
(3.14 (0 0.124339 0))
(3.15 (0 0.124768 0))
(3.16 (0 0.125185 0))
(3.17 (0 0.125589 0))
(3.18 (0 0.125982 0))
(3.19 (0 0.126362 0))
(3.2 (0 0.126729 0))
(3.21 (0 0.127084 0))
(3.22 (0 0.127426 0))
(3.23 (0 0.127755 0))
(3.24 (0 0.128071 0))
(3.25 (0 0.128374 0))
(3.26 (0 0.128664 0))
(3.27 (0 0.12894 0))
(3.28 (0 0.129203 0))
(3.29 (0 0.129453 0))
(3.3 (0 0.129689 0))
(3.31 (0 0.129911 0))
(3.32 (0 0.130119 0))
(3.33 (0 0.130314 0))
(3.34 (0 0.130494 0))
(3.35 (0 0.130661 0))
(3.36 (0 0.130813 0))
(3.37 (0 0.130951 0))
(3.38 (0 0.131074 0))
(3.39 (0 0.131183 0))
(3.4 (0 0.131278 0))
(3.41 (0 0.131358 0))
(3.42 (0 0.131423 0))
(3.43 (0 0.131473 0))
(3.44 (0 0.131509 0))
(3.45 (0 0.131529 0))
(3.46 (0 0.131535 0))
(3.47 (0 0.131525 0))
(3.48 (0 0.1315 0))
(3.49 (0 0.13146 0))
(3.5 (0 0.131405 0))
(3.51 (0 0.131334 0))
(3.52 (0 0.131248 0))
(3.53 (0 0.131146 0))
(3.54 (0 0.131029 0))
(3.55 (0 0.130895 0))
(3.56 (0 0.130747 0))
(3.57 (0 0.130582 0))
(3.58 (0 0.130402 0))
(3.59 (0 0.130206 0))
(3.6 (0 0.129993 0))
(3.61 (0 0.129765 0))
(3.62 (0 0.129521 0))
(3.63 (0 0.129261 0))
(3.64 (0 0.128985 0))
(3.65 (0 0.128692 0))
(3.66 (0 0.128383 0))
(3.67 (0 0.128058 0))
(3.68 (0 0.127717 0))
(3.69 (0 0.12736 0))
(3.7 (0 0.126986 0))
(3.71 (0 0.126595 0))
(3.72 (0 0.126189 0))
(3.73 (0 0.125766 0))
(3.74 (0 0.125326 0))
(3.75 (0 0.12487 0))
(3.76 (0 0.124397 0))
(3.77 (0 0.123908 0))
(3.78 (0 0.123403 0))
(3.79 (0 0.12288 0))
(3.8 (0 0.122342 0))
(3.81 (0 0.121786 0))
(3.82 (0 0.121214 0))
(3.83 (0 0.120626 0))
(3.84 (0 0.120021 0))
(3.85 (0 0.119399 0))
(3.86 (0 0.118761 0))
(3.87 (0 0.118106 0))
(3.88 (0 0.117435 0))
(3.89 (0 0.116747 0))
(3.9 (0 0.116042 0))
(3.91 (0 0.115321 0))
(3.92 (0 0.114583 0))
(3.93 (0 0.113829 0))
(3.94 (0 0.113058 0))
(3.95 (0 0.112271 0))
(3.96 (0 0.111467 0))
(3.97 (0 0.110647 0))
(3.98 (0 0.10981 0))
(3.99 (0 0.108957 0))
(4 (0 0.108087 0))
(4.01 (0 0.107202 0))
(4.02 (0 0.106299 0))
(4.03 (0 0.105381 0))
(4.04 (0 0.104446 0))
(4.05 (0 0.103496 0))
(4.06 (0 0.102529 0))
(4.07 (0 0.101546 0))
(4.08 (0 0.100547 0))
(4.09 (0 0.099531 0))
(4.1 (0 0.0985 0))
(4.11 (0 0.097453 0))
(4.12 (0 0.096391 0))
(4.13 (0 0.095312 0))
(4.14 (0 0.094218 0))
(4.15 (0 0.093108 0))
(4.16 (0 0.091982 0))
(4.17 (0 0.090841 0))
(4.18 (0 0.089684 0))
(4.19 (0 0.088512 0))
(4.2 (0 0.087325 0))
(4.21 (0 0.086122 0))
(4.22 (0 0.084904 0))
(4.23 (0 0.083672 0))
(4.24 (0 0.082424 0))
(4.25 (0 0.081161 0))
(4.26 (0 0.079883 0))
(4.27 (0 0.078591 0))
(4.28 (0 0.077284 0))
(4.29 (0 0.075962 0))
(4.3 (0 0.074626 0))
(4.31 (0 0.073276 0))
(4.32 (0 0.071911 0))
(4.33 (0 0.070532 0))
(4.34 (0 0.069139 0))
(4.35 (0 0.067732 0))
(4.36 (0 0.066312 0))
(4.37 (0 0.064877 0))
(4.38 (0 0.063429 0))
(4.39 (0 0.061967 0))
(4.4 (0 0.060492 0))
(4.41 (0 0.059004 0))
(4.42 (0 0.057502 0))
(4.43 (0 0.055987 0))
(4.44 (0 0.05446 0))
(4.45 (0 0.05292 0))
(4.46 (0 0.051366 0))
(4.47 (0 0.049801 0))
(4.48 (0 0.048223 0))
(4.49 (0 0.046633 0))
(4.5 (0 0.04503 0))
(4.51 (0 0.043416 0))
(4.52 (0 0.041789 0))
(4.53 (0 0.040151 0))
(4.54 (0 0.038502 0))
(4.55 (0 0.036841 0))
(4.56 (0 0.035168 0))
(4.57 (0 0.033485 0))
(4.58 (0 0.03179 0))
(4.59 (0 0.030085 0))
(4.6 (0 0.028369 0))
(4.61 (0 0.026642 0))
(4.62 (0 0.024905 0))
(4.63 (0 0.023158 0))
(4.64 (0 0.021401 0))
(4.65 (0 0.019633 0))
(4.66 (0 0.017856 0))
(4.67 (0 0.01607 0))
(4.68 (0 0.014274 0))
(4.69 (0 0.012469 0))
(4.7 (0 0.010655 0))
(4.71 (0 0.008832 0))
(4.72 (0 0.007 0))
(4.73 (0 0.00516 0))
(4.74 (0 0.003311 0))
(4.75 (0 0.001455 0))
(4.76 (0 -0.00041 0))
(4.77 (0 -0.002283 0))
(4.78 (0 -0.004163 0))
(4.79 (0 -0.00605 0))
(4.8 (0 -0.007945 0))
(4.81 (0 -0.009847 0))
(4.82 (0 -0.011756 0))
(4.83 (0 -0.013671 0))
(4.84 (0 -0.015593 0))
(4.85 (0 -0.017522 0))
(4.86 (0 -0.019456 0))
(4.87 (0 -0.021396 0))
(4.88 (0 -0.023342 0))
(4.89 (0 -0.025294 0))
(4.9 (0 -0.02725 0))
(4.91 (0 -0.029212 0))
(4.92 (0 -0.031179 0))
(4.93 (0 -0.03315 0))
(4.94 (0 -0.035126 0))
(4.95 (0 -0.037107 0))
(4.96 (0 -0.039091 0))
(4.97 (0 -0.041079 0))
(4.98 (0 -0.043071 0))
(4.99 (0 -0.045066 0))
(5 (0 -0.047064 0))
(5.01 (0 -0.049066 0))
(5.02 (0 -0.05107 0))
(5.03 (0 -0.053077 0))
(5.04 (0 -0.055086 0))
(5.05 (0 -0.057097 0))
(5.06 (0 -0.05911 0))
(5.07 (0 -0.061125 0))
(5.08 (0 -0.063142 0))
(5.09 (0 -0.065159 0))
(5.1 (0 -0.067178 0))
(5.11 (0 -0.069197 0))
(5.12 (0 -0.071217 0))
(5.13 (0 -0.073238 0))
(5.14 (0 -0.075258 0))
(5.15 (0 -0.077279 0))
(5.16 (0 -0.079299 0))
(5.17 (0 -0.081319 0))
(5.18 (0 -0.083337 0))
(5.19 (0 -0.085355 0))
(5.2 (0 -0.087372 0))
(5.21 (0 -0.089387 0))
(5.22 (0 -0.091401 0))
(5.23 (0 -0.093412 0))
(5.24 (0 -0.095421 0))
(5.25 (0 -0.097428 0))
(5.26 (0 -0.099433 0))
(5.27 (0 -0.101434 0))
(5.28 (0 -0.103433 0))
(5.29 (0 -0.105428 0))
(5.3 (0 -0.107419 0))
(5.31 (0 -0.109407 0))
(5.32 (0 -0.111391 0))
(5.33 (0 -0.11337 0))
(5.34 (0 -0.115345 0))
(5.35 (0 -0.117315 0))
(5.36 (0 -0.11928 0))
(5.37 (0 -0.12124 0))
(5.38 (0 -0.123195 0))
(5.39 (0 -0.125144 0))
(5.4 (0 -0.127087 0))
(5.41 (0 -0.129023 0))
(5.42 (0 -0.130954 0))
(5.43 (0 -0.132878 0))
(5.44 (0 -0.134795 0))
(5.45 (0 -0.136704 0))
(5.46 (0 -0.138607 0))
(5.47 (0 -0.140502 0))
(5.48 (0 -0.142389 0))
(5.49 (0 -0.144268 0))
(5.5 (0 -0.146139 0))
(5.51 (0 -0.148001 0))
(5.52 (0 -0.149855 0))
(5.53 (0 -0.151699 0))
(5.54 (0 -0.153534 0))
(5.55 (0 -0.15536 0))
(5.56 (0 -0.157176 0))
(5.57 (0 -0.158983 0))
(5.58 (0 -0.160779 0))
(5.59 (0 -0.162565 0))
(5.6 (0 -0.16434 0))
(5.61 (0 -0.166104 0))
(5.62 (0 -0.167857 0))
(5.63 (0 -0.169599 0))
(5.64 (0 -0.171329 0))
(5.65 (0 -0.173048 0))
(5.66 (0 -0.174754 0))
(5.67 (0 -0.176449 0))
(5.68 (0 -0.17813 0))
(5.69 (0 -0.1798 0))
(5.7 (0 -0.181456 0))
(5.71 (0 -0.183099 0))
(5.72 (0 -0.184729 0))
(5.73 (0 -0.186345 0))
(5.74 (0 -0.187948 0))
(5.75 (0 -0.189536 0))
(5.76 (0 -0.19111 0))
(5.77 (0 -0.19267 0))
(5.78 (0 -0.194215 0))
(5.79 (0 -0.195745 0))
(5.8 (0 -0.19726 0))
(5.81 (0 -0.19876 0))
(5.82 (0 -0.200244 0))
(5.83 (0 -0.201712 0))
(5.84 (0 -0.203165 0))
(5.85 (0 -0.204601 0))
(5.86 (0 -0.206021 0))
(5.87 (0 -0.207424 0))
(5.88 (0 -0.208811 0))
(5.89 (0 -0.21018 0))
(5.9 (0 -0.211533 0))
(5.91 (0 -0.212867 0))
(5.92 (0 -0.214185 0))
(5.93 (0 -0.215484 0))
(5.94 (0 -0.216766 0))
(5.95 (0 -0.218029 0))
(5.96 (0 -0.219274 0))
(5.97 (0 -0.2205 0))
(5.98 (0 -0.221707 0))
(5.99 (0 -0.222896 0))
(6 (0 -0.224065 0))
(6.01 (0 -0.225215 0))
(6.02 (0 -0.226345 0))
(6.03 (0 -0.227456 0))
(6.04 (0 -0.228547 0))
(6.05 (0 -0.229617 0))
(6.06 (0 -0.230668 0))
(6.07 (0 -0.231697 0))
(6.08 (0 -0.232707 0))
(6.09 (0 -0.233695 0))
(6.1 (0 -0.234663 0))
(6.11 (0 -0.235609 0))
(6.12 (0 -0.236534 0))
(6.13 (0 -0.237438 0))
(6.14 (0 -0.23832 0))
(6.15 (0 -0.23918 0))
(6.16 (0 -0.240018 0))
(6.17 (0 -0.240834 0))
(6.18 (0 -0.241628 0))
(6.19 (0 -0.242399 0))
(6.2 (0 -0.243148 0))
(6.21 (0 -0.243874 0))
(6.22 (0 -0.244577 0))
(6.23 (0 -0.245257 0))
(6.24 (0 -0.245914 0))
(6.25 (0 -0.246547 0))
(6.26 (0 -0.247157 0))
(6.27 (0 -0.247744 0))
(6.28 (0 -0.248307 0))
(6.29 (0 -0.248845 0))
(6.3 (0 -0.24936 0))
(6.31 (0 -0.249851 0))
(6.32 (0 -0.250318 0))
(6.33 (0 -0.25076 0))
(6.34 (0 -0.251178 0))
(6.35 (0 -0.251571 0))
(6.36 (0 -0.251939 0))
(6.37 (0 -0.252282 0))
(6.38 (0 -0.252601 0))
(6.39 (0 -0.252894 0))
(6.4 (0 -0.253163 0))
(6.41 (0 -0.253406 0))
(6.42 (0 -0.253624 0))
(6.43 (0 -0.253816 0))
(6.44 (0 -0.253982 0))
(6.45 (0 -0.254123 0))
(6.46 (0 -0.254239 0))
(6.47 (0 -0.254328 0))
(6.48 (0 -0.254391 0))
(6.49 (0 -0.254429 0))
(6.5 (0 -0.25444 0))
(6.51 (0 -0.254425 0))
(6.52 (0 -0.254384 0))
(6.53 (0 -0.254317 0))
(6.54 (0 -0.254223 0))
(6.55 (0 -0.254103 0))
(6.56 (0 -0.253956 0))
(6.57 (0 -0.253783 0))
(6.58 (0 -0.253583 0))
(6.59 (0 -0.253356 0))
(6.6 (0 -0.253103 0))
(6.61 (0 -0.252822 0))
(6.62 (0 -0.252515 0))
(6.63 (0 -0.252181 0))
(6.64 (0 -0.25182 0))
(6.65 (0 -0.251433 0))
(6.66 (0 -0.251018 0))
(6.67 (0 -0.250576 0))
(6.68 (0 -0.250107 0))
(6.69 (0 -0.249611 0))
(6.7 (0 -0.249087 0))
(6.71 (0 -0.248537 0))
(6.72 (0 -0.24796 0))
(6.73 (0 -0.247355 0))
(6.74 (0 -0.246723 0))
(6.75 (0 -0.246064 0))
(6.76 (0 -0.245378 0))
(6.77 (0 -0.244664 0))
(6.78 (0 -0.243923 0))
(6.79 (0 -0.243155 0))
(6.8 (0 -0.24236 0))
(6.81 (0 -0.241538 0))
(6.82 (0 -0.240688 0))
(6.83 (0 -0.239811 0))
(6.84 (0 -0.238907 0))
(6.85 (0 -0.237976 0))
(6.86 (0 -0.237018 0))
(6.87 (0 -0.236033 0))
(6.88 (0 -0.235021 0))
(6.89 (0 -0.233981 0))
(6.9 (0 -0.232915 0))
(6.91 (0 -0.231822 0))
(6.92 (0 -0.230701 0))
(6.93 (0 -0.229554 0))
(6.94 (0 -0.22838 0))
(6.95 (0 -0.22718 0))
(6.96 (0 -0.225952 0))
(6.97 (0 -0.224698 0))
(6.98 (0 -0.223417 0))
(6.99 (0 -0.22211 0))
(7 (0 -0.220776 0))
(7.01 (0 -0.219416 0))
(7.02 (0 -0.21803 0))
(7.03 (0 -0.216617 0))
(7.04 (0 -0.215178 0))
(7.05 (0 -0.213713 0))
(7.06 (0 -0.212222 0))
(7.07 (0 -0.210705 0))
(7.08 (0 -0.209163 0))
(7.09 (0 -0.207594 0))
(7.1 (0 -0.206 0))
(7.11 (0 -0.20438 0))
(7.12 (0 -0.202735 0))
(7.13 (0 -0.201064 0))
(7.14 (0 -0.199369 0))
(7.15 (0 -0.197648 0))
(7.16 (0 -0.195902 0))
(7.17 (0 -0.194131 0))
(7.18 (0 -0.192335 0))
(7.19 (0 -0.190515 0))
(7.2 (0 -0.18867 0))
(7.21 (0 -0.186801 0))
(7.22 (0 -0.184908 0))
(7.23 (0 -0.18299 0))
(7.24 (0 -0.181049 0))
(7.25 (0 -0.179084 0))
(7.26 (0 -0.177094 0))
(7.27 (0 -0.175082 0))
(7.28 (0 -0.173046 0))
(7.29 (0 -0.170986 0))
(7.3 (0 -0.168904 0))
(7.31 (0 -0.166799 0))
(7.32 (0 -0.164671 0))
(7.33 (0 -0.16252 0))
(7.34 (0 -0.160347 0))
(7.35 (0 -0.158151 0))
(7.36 (0 -0.155934 0))
(7.37 (0 -0.153694 0))
(7.38 (0 -0.151433 0))
(7.39 (0 -0.14915 0))
(7.4 (0 -0.146846 0))
(7.41 (0 -0.144521 0))
(7.42 (0 -0.142174 0))
(7.43 (0 -0.139807 0))
(7.44 (0 -0.137419 0))
(7.45 (0 -0.135011 0))
(7.46 (0 -0.132583 0))
(7.47 (0 -0.130134 0))
(7.48 (0 -0.127666 0))
(7.49 (0 -0.125178 0))
(7.5 (0 -0.122671 0))
(7.51 (0 -0.120144 0))
(7.52 (0 -0.117599 0))
(7.53 (0 -0.115035 0))
(7.54 (0 -0.112452 0))
(7.55 (0 -0.109851 0))
(7.56 (0 -0.107232 0))
(7.57 (0 -0.104595 0))
(7.58 (0 -0.10194 0))
(7.59 (0 -0.099268 0))
(7.6 (0 -0.096579 0))
(7.61 (0 -0.093873 0))
(7.62 (0 -0.09115 0))
(7.63 (0 -0.088411 0))
(7.64 (0 -0.085656 0))
(7.65 (0 -0.082885 0))
(7.66 (0 -0.080098 0))
(7.67 (0 -0.077296 0))
(7.68 (0 -0.074478 0))
(7.69 (0 -0.071646 0))
(7.7 (0 -0.068799 0))
(7.71 (0 -0.065937 0))
(7.72 (0 -0.063062 0))
(7.73 (0 -0.060172 0))
(7.74 (0 -0.057269 0))
(7.75 (0 -0.054353 0))
(7.76 (0 -0.051424 0))
(7.77 (0 -0.048481 0))
(7.78 (0 -0.045527 0))
(7.79 (0 -0.04256 0))
(7.8 (0 -0.039581 0))
(7.81 (0 -0.03659 0))
(7.82 (0 -0.033588 0))
(7.83 (0 -0.030575 0))
(7.84 (0 -0.027551 0))
(7.85 (0 -0.024517 0))
(7.86 (0 -0.021472 0))
(7.87 (0 -0.018418 0))
(7.88 (0 -0.015354 0))
(7.89 (0 -0.01228 0))
(7.9 (0 -0.009198 0))
(7.91 (0 -0.006106 0))
(7.92 (0 -0.003007 0))
(7.93 (0 0.000101 0))
(7.94 (0 0.003217 0))
(7.95 (0 0.00634 0))
(7.96 (0 0.009471 0))
(7.97 (0 0.012608 0))
(7.98 (0 0.015752 0))
(7.99 (0 0.018902 0))
(8 (0 0.022059 0))
(8.01 (0 0.025221 0))
(8.02 (0 0.028388 0))
(8.03 (0 0.03156 0))
(8.04 (0 0.034737 0))
(8.05 (0 0.037919 0))
(8.06 (0 0.041104 0))
(8.07 (0 0.044293 0))
(8.08 (0 0.047486 0))
(8.09 (0 0.050682 0))
(8.1 (0 0.05388 0))
(8.11 (0 0.057081 0))
(8.12 (0 0.060285 0))
(8.13 (0 0.063489 0))
(8.14 (0 0.066696 0))
(8.15 (0 0.069903 0))
(8.16 (0 0.073112 0))
(8.17 (0 0.076321 0))
(8.18 (0 0.079529 0))
(8.19 (0 0.082738 0))
(8.2 (0 0.085946 0))
(8.21 (0 0.089154 0))
(8.22 (0 0.09236 0))
(8.23 (0 0.095565 0))
(8.24 (0 0.098767 0))
(8.25 (0 0.101968 0))
(8.26 (0 0.105166 0))
(8.27 (0 0.108361 0))
(8.28 (0 0.111553 0))
(8.29 (0 0.114741 0))
(8.3 (0 0.117926 0))
(8.31 (0 0.121106 0))
(8.32 (0 0.124281 0))
(8.33 (0 0.127452 0))
(8.34 (0 0.130618 0))
(8.35 (0 0.133777 0))
(8.36 (0 0.136931 0))
(8.37 (0 0.140079 0))
(8.38 (0 0.14322 0))
(8.39 (0 0.146354 0))
(8.4 (0 0.14948 0))
(8.41 (0 0.152599 0))
(8.42 (0 0.15571 0))
(8.43 (0 0.158813 0))
(8.44 (0 0.161907 0))
(8.45 (0 0.164992 0))
(8.46 (0 0.168068 0))
(8.47 (0 0.171134 0))
(8.48 (0 0.17419 0))
(8.49 (0 0.177235 0))
(8.5 (0 0.18027 0))
(8.51 (0 0.183294 0))
(8.52 (0 0.186306 0))
(8.53 (0 0.189307 0))
(8.54 (0 0.192295 0))
(8.55 (0 0.195271 0))
(8.56 (0 0.198235 0))
(8.57 (0 0.201185 0))
(8.58 (0 0.204122 0))
(8.59 (0 0.207045 0))
(8.6 (0 0.209954 0))
(8.61 (0 0.212849 0))
(8.62 (0 0.215729 0))
(8.63 (0 0.218594 0))
(8.64 (0 0.221443 0))
(8.65 (0 0.224277 0))
(8.66 (0 0.227094 0))
(8.67 (0 0.229896 0))
(8.68 (0 0.23268 0))
(8.69 (0 0.235448 0))
(8.7 (0 0.238198 0))
(8.71 (0 0.24093 0))
(8.72 (0 0.243644 0))
(8.73 (0 0.24634 0))
(8.74 (0 0.249018 0))
(8.75 (0 0.251676 0))
(8.76 (0 0.254315 0))
(8.77 (0 0.256935 0))
(8.78 (0 0.259534 0))
(8.79 (0 0.262114 0))
(8.8 (0 0.264673 0))
(8.81 (0 0.267211 0))
(8.82 (0 0.269727 0))
(8.83 (0 0.272223 0))
(8.84 (0 0.274696 0))
(8.85 (0 0.277148 0))
(8.86 (0 0.279577 0))
(8.87 (0 0.281983 0))
(8.88 (0 0.284366 0))
(8.89 (0 0.286727 0))
(8.9 (0 0.289063 0))
(8.91 (0 0.291376 0))
(8.92 (0 0.293664 0))
(8.93 (0 0.295929 0))
(8.94 (0 0.298168 0))
(8.95 (0 0.300382 0))
(8.96 (0 0.302571 0))
(8.97 (0 0.304735 0))
(8.98 (0 0.306872 0))
(8.99 (0 0.308984 0))
(9 (0 0.311069 0))
(9.01 (0 0.313128 0))
(9.02 (0 0.315159 0))
(9.03 (0 0.317163 0))
(9.04 (0 0.31914 0))
(9.05 (0 0.321089 0))
(9.06 (0 0.32301 0))
(9.07 (0 0.324903 0))
(9.08 (0 0.326767 0))
(9.09 (0 0.328602 0))
(9.1 (0 0.330409 0))
(9.11 (0 0.332186 0))
(9.12 (0 0.333934 0))
(9.13 (0 0.335652 0))
(9.14 (0 0.337339 0))
(9.15 (0 0.338997 0))
(9.16 (0 0.340624 0))
(9.17 (0 0.342221 0))
(9.18 (0 0.343786 0))
(9.19 (0 0.345321 0))
(9.2 (0 0.346823 0))
(9.21 (0 0.348295 0))
(9.22 (0 0.349734 0))
(9.23 (0 0.351142 0))
(9.24 (0 0.352517 0))
(9.25 (0 0.35386 0))
(9.26 (0 0.35517 0))
(9.27 (0 0.356447 0))
(9.28 (0 0.357691 0))
(9.29 (0 0.358902 0))
(9.3 (0 0.360079 0))
(9.31 (0 0.361223 0))
(9.32 (0 0.362333 0))
(9.33 (0 0.363409 0))
(9.34 (0 0.364451 0))
(9.35 (0 0.365458 0))
(9.36 (0 0.36643 0))
(9.37 (0 0.367368 0))
(9.38 (0 0.368271 0))
(9.39 (0 0.369139 0))
(9.4 (0 0.369972 0))
(9.41 (0 0.370769 0))
(9.42 (0 0.371531 0))
(9.43 (0 0.372257 0))
(9.44 (0 0.372947 0))
(9.45 (0 0.373602 0))
(9.46 (0 0.37422 0))
(9.47 (0 0.374801 0))
(9.48 (0 0.375347 0))
(9.49 (0 0.375856 0))
(9.5 (0 0.376328 0))
(9.51 (0 0.376763 0))
(9.52 (0 0.377161 0))
(9.53 (0 0.377523 0))
(9.54 (0 0.377847 0))
(9.55 (0 0.378134 0))
(9.56 (0 0.378384 0))
(9.57 (0 0.378596 0))
(9.58 (0 0.378771 0))
(9.59 (0 0.378907 0))
(9.6 (0 0.379007 0))
(9.61 (0 0.379068 0))
(9.62 (0 0.379092 0))
(9.63 (0 0.379077 0))
(9.64 (0 0.379024 0))
(9.65 (0 0.378934 0))
(9.66 (0 0.378805 0))
(9.67 (0 0.378637 0))
(9.68 (0 0.378432 0))
(9.69 (0 0.378188 0))
(9.7 (0 0.377905 0))
(9.71 (0 0.377584 0))
(9.72 (0 0.377225 0))
(9.73 (0 0.376827 0))
(9.74 (0 0.37639 0))
(9.75 (0 0.375915 0))
(9.76 (0 0.375401 0))
(9.77 (0 0.374848 0))
(9.78 (0 0.374256 0))
(9.79 (0 0.373626 0))
(9.8 (0 0.372957 0))
(9.81 (0 0.37225 0))
(9.82 (0 0.371503 0))
(9.83 (0 0.370718 0))
(9.84 (0 0.369894 0))
(9.85 (0 0.369031 0))
(9.86 (0 0.368129 0))
(9.87 (0 0.367189 0))
(9.88 (0 0.36621 0))
(9.89 (0 0.365192 0))
(9.9 (0 0.364136 0))
(9.91 (0 0.363041 0))
(9.92 (0 0.361907 0))
(9.93 (0 0.360735 0))
(9.94 (0 0.359524 0))
(9.95 (0 0.358275 0))
(9.96 (0 0.356987 0))
(9.97 (0 0.355661 0))
(9.98 (0 0.354297 0))
(9.99 (0 0.352895 0))
(10 (0 0.351454 0))
(10.01 (0 0.349975 0))
(10.02 (0 0.348458 0))
(10.03 (0 0.346904 0))
(10.04 (0 0.345311 0))
(10.05 (0 0.343681 0))
(10.06 (0 0.342013 0))
(10.07 (0 0.340307 0))
(10.08 (0 0.338564 0))
(10.09 (0 0.336783 0))
(10.1 (0 0.334965 0))
(10.11 (0 0.333111 0))
(10.12 (0 0.331219 0))
(10.13 (0 0.32929 0))
(10.14 (0 0.327324 0))
(10.15 (0 0.325322 0))
(10.16 (0 0.323283 0))
(10.17 (0 0.321208 0))
(10.18 (0 0.319096 0))
(10.19 (0 0.316949 0))
(10.2 (0 0.314765 0))
(10.21 (0 0.312546 0))
(10.22 (0 0.310291 0))
(10.23 (0 0.308 0))
(10.24 (0 0.305675 0))
(10.25 (0 0.303314 0))
(10.26 (0 0.300918 0))
(10.27 (0 0.298487 0))
(10.28 (0 0.296022 0))
(10.29 (0 0.293522 0))
(10.3 (0 0.290988 0))
(10.31 (0 0.28842 0))
(10.32 (0 0.285818 0))
(10.33 (0 0.283183 0))
(10.34 (0 0.280514 0))
(10.35 (0 0.277811 0))
(10.36 (0 0.275076 0))
(10.37 (0 0.272308 0))
(10.38 (0 0.269507 0))
(10.39 (0 0.266674 0))
(10.4 (0 0.263809 0))
(10.41 (0 0.260912 0))
(10.42 (0 0.257984 0))
(10.43 (0 0.255023 0))
(10.44 (0 0.252032 0))
(10.45 (0 0.24901 0))
(10.46 (0 0.245957 0))
(10.47 (0 0.242873 0))
(10.48 (0 0.23976 0))
(10.49 (0 0.236616 0))
(10.5 (0 0.233443 0))
(10.51 (0 0.23024 0))
(10.52 (0 0.227009 0))
(10.53 (0 0.223748 0))
(10.54 (0 0.220459 0))
(10.55 (0 0.217141 0))
(10.56 (0 0.213796 0))
(10.57 (0 0.210423 0))
(10.58 (0 0.207022 0))
(10.59 (0 0.203594 0))
(10.6 (0 0.20014 0))
(10.61 (0 0.196659 0))
(10.62 (0 0.193151 0))
(10.63 (0 0.189618 0))
(10.64 (0 0.186059 0))
(10.65 (0 0.182475 0))
(10.66 (0 0.178866 0))
(10.67 (0 0.175232 0))
(10.68 (0 0.171574 0))
(10.69 (0 0.167892 0))
(10.7 (0 0.164186 0))
(10.71 (0 0.160457 0))
(10.72 (0 0.156705 0))
(10.73 (0 0.15293 0))
(10.74 (0 0.149133 0))
(10.75 (0 0.145314 0))
(10.76 (0 0.141473 0))
(10.77 (0 0.137611 0))
(10.78 (0 0.133728 0))
(10.79 (0 0.129825 0))
(10.8 (0 0.125901 0))
(10.81 (0 0.121957 0))
(10.82 (0 0.117994 0))
(10.83 (0 0.114012 0))
(10.84 (0 0.110011 0))
(10.85 (0 0.105992 0))
(10.86 (0 0.101954 0))
(10.87 (0 0.097899 0))
(10.88 (0 0.093827 0))
(10.89 (0 0.089738 0))
(10.9 (0 0.085633 0))
(10.91 (0 0.081511 0))
(10.92 (0 0.077374 0))
(10.93 (0 0.073221 0))
(10.94 (0 0.069053 0))
(10.95 (0 0.064871 0))
(10.96 (0 0.060675 0))
(10.97 (0 0.056465 0))
(10.98 (0 0.052242 0))
(10.99 (0 0.048006 0))
(11 (0 0.043757 0))
(11.01 (0 0.039496 0))
(11.02 (0 0.035224 0))
(11.03 (0 0.03094 0))
(11.04 (0 0.026645 0))
(11.05 (0 0.02234 0))
(11.06 (0 0.018025 0))
(11.07 (0 0.0137 0))
(11.08 (0 0.009366 0))
(11.09 (0 0.005024 0))
(11.1 (0 0.000673 0))
(11.11 (0 -0.003686 0))
(11.12 (0 -0.008052 0))
(11.13 (0 -0.012426 0))
(11.14 (0 -0.016806 0))
(11.15 (0 -0.021192 0))
(11.16 (0 -0.025584 0))
(11.17 (0 -0.029982 0))
(11.18 (0 -0.034384 0))
(11.19 (0 -0.038791 0))
(11.2 (0 -0.043201 0))
(11.21 (0 -0.047616 0))
(11.22 (0 -0.052033 0))
(11.23 (0 -0.056453 0))
(11.24 (0 -0.060876 0))
(11.25 (0 -0.0653 0))
(11.26 (0 -0.069725 0))
(11.27 (0 -0.074152 0))
(11.28 (0 -0.078579 0))
(11.29 (0 -0.083005 0))
(11.3 (0 -0.087432 0))
(11.31 (0 -0.091857 0))
(11.32 (0 -0.096282 0))
(11.33 (0 -0.100704 0))
(11.34 (0 -0.105124 0))
(11.35 (0 -0.109542 0))
(11.36 (0 -0.113956 0))
(11.37 (0 -0.118367 0))
(11.38 (0 -0.122774 0))
(11.39 (0 -0.127176 0))
(11.4 (0 -0.131574 0))
(11.41 (0 -0.135966 0))
(11.42 (0 -0.140352 0))
(11.43 (0 -0.144732 0))
(11.44 (0 -0.149105 0))
(11.45 (0 -0.153471 0))
(11.46 (0 -0.157829 0))
(11.47 (0 -0.162179 0))
(11.48 (0 -0.16652 0))
(11.49 (0 -0.170853 0))
(11.5 (0 -0.175176 0))
(11.51 (0 -0.179489 0))
(11.52 (0 -0.183791 0))
(11.53 (0 -0.188083 0))
(11.54 (0 -0.192363 0))
(11.55 (0 -0.196632 0))
(11.56 (0 -0.200889 0))
(11.57 (0 -0.205133 0))
(11.58 (0 -0.209363 0))
(11.59 (0 -0.21358 0))
(11.6 (0 -0.217784 0))
(11.61 (0 -0.221972 0))
(11.62 (0 -0.226146 0))
(11.63 (0 -0.230305 0))
(11.64 (0 -0.234447 0))
(11.65 (0 -0.238574 0))
(11.66 (0 -0.242684 0))
(11.67 (0 -0.246776 0))
(11.68 (0 -0.250851 0))
(11.69 (0 -0.254908 0))
(11.7 (0 -0.258947 0))
(11.71 (0 -0.262967 0))
(11.72 (0 -0.266967 0))
(11.73 (0 -0.270948 0))
(11.74 (0 -0.274908 0))
(11.75 (0 -0.278848 0))
(11.76 (0 -0.282766 0))
(11.77 (0 -0.286664 0))
(11.78 (0 -0.290539 0))
(11.79 (0 -0.294392 0))
(11.8 (0 -0.298222 0))
(11.81 (0 -0.302029 0))
(11.82 (0 -0.305812 0))
(11.83 (0 -0.309571 0))
(11.84 (0 -0.313306 0))
(11.85 (0 -0.317016 0))
(11.86 (0 -0.3207 0))
(11.87 (0 -0.324359 0))
(11.88 (0 -0.327992 0))
(11.89 (0 -0.331598 0))
(11.9 (0 -0.335177 0))
(11.91 (0 -0.338729 0))
(11.92 (0 -0.342253 0))
(11.93 (0 -0.345749 0))
(11.94 (0 -0.349216 0))
(11.95 (0 -0.352654 0))
(11.96 (0 -0.356063 0))
(11.97 (0 -0.359443 0))
(11.98 (0 -0.362792 0))
(11.99 (0 -0.36611 0))
(12 (0 -0.369398 0))
(12.01 (0 -0.372654 0))
(12.02 (0 -0.375879 0))
(12.03 (0 -0.379071 0))
(12.04 (0 -0.382232 0))
(12.05 (0 -0.385359 0))
(12.06 (0 -0.388453 0))
(12.07 (0 -0.391514 0))
(12.08 (0 -0.394541 0))
(12.09 (0 -0.397533 0))
(12.1 (0 -0.400491 0))
(12.11 (0 -0.403414 0))
(12.12 (0 -0.406301 0))
(12.13 (0 -0.409153 0))
(12.14 (0 -0.411969 0))
(12.15 (0 -0.414749 0))
(12.16 (0 -0.417492 0))
(12.17 (0 -0.420197 0))
(12.18 (0 -0.422866 0))
(12.19 (0 -0.425496 0))
(12.2 (0 -0.428089 0))
(12.21 (0 -0.430643 0))
(12.22 (0 -0.433159 0))
(12.23 (0 -0.435636 0))
(12.24 (0 -0.438073 0))
(12.25 (0 -0.440471 0))
(12.26 (0 -0.442829 0))
(12.27 (0 -0.445146 0))
(12.28 (0 -0.447423 0))
(12.29 (0 -0.44966 0))
(12.3 (0 -0.451855 0))
(12.31 (0 -0.454009 0))
(12.32 (0 -0.456121 0))
(12.33 (0 -0.458191 0))
(12.34 (0 -0.460219 0))
(12.35 (0 -0.462205 0))
(12.36 (0 -0.464147 0))
(12.37 (0 -0.466047 0))
(12.38 (0 -0.467903 0))
(12.39 (0 -0.469716 0))
(12.4 (0 -0.471485 0))
(12.41 (0 -0.47321 0))
(12.42 (0 -0.474891 0))
(12.43 (0 -0.476527 0))
(12.44 (0 -0.478118 0))
(12.45 (0 -0.479665 0))
(12.46 (0 -0.481166 0))
(12.47 (0 -0.482622 0))
(12.48 (0 -0.484032 0))
(12.49 (0 -0.485396 0))
(12.5 (0 -0.486714 0))
(12.51 (0 -0.487596 0))
(12.52 (0 -0.488429 0))
(12.53 (0 -0.489215 0))
(12.54 (0 -0.489953 0))
(12.55 (0 -0.490643 0))
(12.56 (0 -0.491285 0))
(12.57 (0 -0.491878 0))
(12.58 (0 -0.492424 0))
(12.59 (0 -0.492921 0))
(12.6 (0 -0.493369 0))
(12.61 (0 -0.49377 0))
(12.62 (0 -0.494122 0))
(12.63 (0 -0.494425 0))
(12.64 (0 -0.49468 0))
(12.65 (0 -0.494886 0))
(12.66 (0 -0.495044 0))